Version 4
SHEET 1 1364 680
WIRE 896 -496 832 -496
WIRE 832 -448 832 -496
WIRE 896 -448 896 -496
WIRE 896 -384 880 -384
WIRE 752 -336 432 -336
WIRE 880 -336 880 -384
WIRE 880 -336 832 -336
WIRE 944 -336 880 -336
WIRE 960 -336 944 -336
WIRE 880 -320 880 -336
WIRE 960 -320 960 -336
WIRE 752 -240 448 -240
WIRE 880 -240 880 -256
WIRE 880 -240 832 -240
WIRE 928 -240 880 -240
WIRE 960 -240 928 -240
WIRE 880 -176 880 -240
WIRE 112 -144 64 -144
WIRE 272 -144 112 -144
WIRE 112 -112 112 -144
WIRE 384 -64 272 -64
WIRE 688 -64 608 -64
WIRE 880 -64 880 -112
WIRE 112 -32 112 -64
WIRE 608 -32 608 -64
WIRE 112 16 112 -32
WIRE 272 16 112 16
WIRE 112 32 112 16
WIRE -96 80 -192 80
WIRE 32 80 -16 80
WIRE 192 80 32 80
WIRE 384 80 384 -64
WIRE 384 80 272 80
WIRE 432 80 432 -336
WIRE 432 80 384 80
WIRE 496 80 432 80
WIRE 688 80 688 0
WIRE 688 80 576 80
WIRE 848 80 688 80
WIRE -368 96 -496 96
WIRE -192 112 -192 80
WIRE 64 112 64 -144
WIRE 64 112 -16 112
WIRE 64 128 64 112
WIRE 48 144 16 144
WIRE 384 160 112 160
WIRE 848 160 848 80
WIRE 32 176 32 80
WIRE 48 176 32 176
WIRE -496 192 -496 96
WIRE -368 192 -368 176
WIRE 688 192 688 80
WIRE -192 208 -192 192
WIRE -16 208 -16 112
WIRE 96 208 96 192
WIRE 96 208 -16 208
WIRE -368 224 -368 192
WIRE 64 240 64 192
WIRE -272 272 -272 256
WIRE -192 272 -192 208
WIRE -192 272 -272 272
WIRE -272 288 -272 272
WIRE -496 368 -496 272
WIRE -368 368 -368 304
WIRE -368 368 -496 368
WIRE -272 368 -368 368
WIRE -208 368 -272 368
WIRE -96 368 -208 368
WIRE 16 368 16 144
WIRE 16 368 -16 368
WIRE 176 368 16 368
WIRE 384 368 384 160
WIRE 384 368 256 368
WIRE 448 368 448 -240
WIRE 448 368 384 368
WIRE 496 368 448 368
WIRE 688 368 688 256
WIRE 688 368 576 368
WIRE 848 368 848 240
WIRE 848 368 688 368
WIRE -208 400 -208 368
WIRE 688 416 688 368
WIRE 688 512 688 480
FLAG 112 32 0
FLAG 64 240 0
FLAG 688 512 0
FLAG 608 -32 0
FLAG 384 -64 Vcm
FLAG 688 80 Vchi
FLAG 688 368 Vclo
FLAG -208 400 0
FLAG -192 208 Vin
FLAG -272 176 0
FLAG -368 192 Vref
FLAG 880 -64 0
FLAG 832 -448 0
FLAG 944 -336 Vchi_mod
FLAG 928 -240 Vclo_mod
SYMBOL Opamps\\ADA4805 80 160 R0
SYMATTR InstName U1
SYMBOL voltage 112 -128 R0
WINDOW 123 0 0 Left 0
WINDOW 39 0 0 Left 0
SYMATTR InstName V3v3
SYMATTR Value 3.3
SYMBOL res 256 -160 R0
SYMATTR InstName Rcm1
SYMATTR Value {rcm}
SYMBOL res 256 -80 R0
SYMATTR InstName Rcm2
SYMATTR Value {rcm}
SYMBOL res 0 64 R90
WINDOW 0 0 56 VBottom 2
WINDOW 3 32 56 VTop 2
SYMATTR InstName R3
SYMATTR Value {r1+Re1}
SYMBOL res 288 64 R90
WINDOW 0 0 56 VBottom 2
WINDOW 3 32 56 VTop 2
SYMATTR InstName R4
SYMATTR Value {r2}
SYMBOL res 592 64 R90
WINDOW 0 0 56 VBottom 2
WINDOW 3 32 56 VTop 2
SYMATTR InstName R6
SYMATTR Value {r5}
SYMBOL res 592 352 R90
WINDOW 0 0 56 VBottom 2
WINDOW 3 32 56 VTop 2
SYMATTR InstName R5
SYMATTR Value {r5}
SYMBOL res 272 352 R90
WINDOW 0 0 56 VBottom 2
WINDOW 3 32 56 VTop 2
SYMATTR InstName R2
SYMATTR Value {r2}
SYMBOL res 0 352 R90
WINDOW 0 0 56 VBottom 2
WINDOW 3 32 56 VTop 2
SYMATTR InstName R1
SYMATTR Value {r1}
SYMBOL cap 672 192 R0
SYMATTR InstName Cdiff
SYMATTR Value {c106}
SYMBOL cap 672 -64 R0
SYMATTR InstName Ccm1
SYMATTR Value {c105}
SYMBOL cap 672 416 R0
SYMATTR InstName Ccm2
SYMATTR Value {c105}
SYMBOL voltage -496 176 R0
WINDOW 3 -225 105 Left 2
WINDOW 123 0 0 Left 0
WINDOW 39 0 0 Left 0
SYMATTR Value SINE(0 5 1 1 0 0 8)
SYMATTR InstName V1
SYMBOL res -384 80 R0
WINDOW 3 -66 64 Left 2
SYMATTR Value {rtlo*100}
SYMATTR InstName Rthi
SYMBOL res -384 208 R0
SYMATTR InstName Rtlo
SYMATTR Value {rtlo}
SYMBOL res 832 144 R0
SYMATTR InstName Rdiff
SYMATTR Value {rdiff}
SYMBOL res -288 272 R0
SYMATTR InstName Rshunt
SYMATTR Value {rshunt}
SYMBOL current -272 176 R0
WINDOW 123 0 0 Left 0
WINDOW 39 0 0 Left 0
SYMATTR InstName I1
SYMATTR Value SINE(0 100 1 1 0 0 7)
SYMBOL res -208 96 R0
SYMATTR InstName R7
SYMATTR Value {Rpinch}
SYMBOL res 848 -352 R90
WINDOW 0 0 56 VBottom 2
WINDOW 3 32 56 VTop 2
SYMATTR InstName R8
SYMATTR Value {r5_mod}
SYMBOL res 848 -256 R90
WINDOW 0 0 56 VBottom 2
WINDOW 3 32 56 VTop 2
SYMATTR InstName R9
SYMATTR Value {r5_mod}
SYMBOL res 944 -336 R0
SYMATTR InstName R10
SYMATTR Value {rdiff}
SYMBOL cap 880 -448 R0
SYMATTR InstName C1
SYMATTR Value {c105}
SYMBOL cap 864 -320 R0
SYMATTR InstName C2
SYMATTR Value {c106}
SYMBOL cap 864 -176 R0
SYMATTR InstName C3
SYMATTR Value {c105}
TEXT -744 536 Left 2 !.param rshunt=0.00075 r0=150k c0=1uF rcm=1000 rs=8.4e-4 r1=5k1 r2=100k r5=10k c106=10uF c105=1uF rtlo=2 rdiff=710k Rpinch=1000 Re1=-1000 r5_mod=8k2
TEXT -744 456 Left 2 !.tran 0 10 0 0.001
TEXT 464 184 Left 2 ;1 second time constant
TEXT -480 64 Left 2 ;low impedance supply
TEXT 176 -176 Left 2 ;low impedance supply
TEXT -152 16 Left 2 ;high impedance
TEXT -152 304 Left 2 ;high impedance
TEXT 472 24 Left 2 ;high impedance
TEXT 488 320 Left 2 ;high impedance
