Version 4
SHEET 1 880 680
WIRE -128 -144 -288 -144
WIRE 64 -144 -128 -144
WIRE -288 -112 -288 -144
WIRE 384 -64 -128 -64
WIRE 688 -64 608 -64
WIRE -288 -32 -288 -64
WIRE 608 -32 608 -64
WIRE -288 16 -288 -32
WIRE -128 16 -288 16
WIRE -288 32 -288 16
WIRE -96 80 -192 80
WIRE 32 80 -16 80
WIRE 192 80 32 80
WIRE 384 80 384 -64
WIRE 384 80 272 80
WIRE 496 80 384 80
WIRE 688 80 688 0
WIRE 688 80 576 80
WIRE -368 96 -496 96
WIRE 64 112 64 -144
WIRE 64 112 -16 112
WIRE 64 128 64 112
WIRE 48 144 16 144
WIRE 384 160 112 160
WIRE 32 176 32 80
WIRE 48 176 32 176
WIRE -496 192 -496 96
WIRE 688 192 688 80
WIRE -368 208 -368 176
WIRE -272 208 -368 208
WIRE -192 208 -192 80
WIRE -192 208 -272 208
WIRE -16 208 -16 112
WIRE 96 208 96 192
WIRE 96 208 -16 208
WIRE -368 224 -368 208
WIRE 64 240 64 192
WIRE -496 368 -496 272
WIRE -368 368 -368 304
WIRE -368 368 -496 368
WIRE -208 368 -368 368
WIRE -96 368 -208 368
WIRE 16 368 16 144
WIRE 16 368 -16 368
WIRE 176 368 16 368
WIRE 384 368 384 160
WIRE 384 368 256 368
WIRE 496 368 384 368
WIRE 688 368 688 256
WIRE 688 368 576 368
WIRE -208 400 -208 368
WIRE 688 416 688 368
WIRE 688 512 688 480
FLAG -288 32 0
FLAG 64 240 0
FLAG 688 512 0
FLAG 608 -32 0
FLAG 384 -64 Vcm
FLAG 688 80 Vchi
FLAG 688 368 Vclo
FLAG -208 400 0
FLAG -272 208 Vin
SYMBOL Opamps\\ADA4805 80 160 R0
SYMATTR InstName U1
SYMBOL voltage -288 -128 R0
WINDOW 123 0 0 Left 0
WINDOW 39 0 0 Left 0
SYMATTR InstName V3v3
SYMATTR Value 3.3
SYMBOL res -144 -160 R0
SYMATTR InstName Rcm1
SYMATTR Value {rcm}
SYMBOL res -144 -80 R0
SYMATTR InstName Rcm2
SYMATTR Value {rcm}
SYMBOL res 0 64 R90
WINDOW 0 0 56 VBottom 2
WINDOW 3 32 56 VTop 2
SYMATTR InstName R3
SYMATTR Value {r1}
SYMBOL res 288 64 R90
WINDOW 0 0 56 VBottom 2
WINDOW 3 32 56 VTop 2
SYMATTR InstName R4
SYMATTR Value {r2}
SYMBOL res 592 64 R90
WINDOW 0 0 56 VBottom 2
WINDOW 3 32 56 VTop 2
SYMATTR InstName R6
SYMATTR Value {r5}
SYMBOL res 592 352 R90
WINDOW 0 0 56 VBottom 2
WINDOW 3 32 56 VTop 2
SYMATTR InstName R5
SYMATTR Value {r5}
SYMBOL res 272 352 R90
WINDOW 0 0 56 VBottom 2
WINDOW 3 32 56 VTop 2
SYMATTR InstName R2
SYMATTR Value {r2}
SYMBOL res 0 352 R90
WINDOW 0 0 56 VBottom 2
WINDOW 3 32 56 VTop 2
SYMATTR InstName R1
SYMATTR Value {r1}
SYMBOL cap 672 192 R0
SYMATTR InstName Cdiff
SYMATTR Value {cdiff}
SYMBOL cap 672 -64 R0
SYMATTR InstName Ccm1
SYMATTR Value {ccm}
SYMBOL cap 672 416 R0
SYMATTR InstName Ccm2
SYMATTR Value {ccm}
SYMBOL voltage -496 176 R0
WINDOW 3 -225 105 Left 2
WINDOW 123 0 0 Left 0
WINDOW 39 0 0 Left 0
SYMATTR Value SINE(0 5 1 1 0 0 8)
SYMATTR InstName V1
SYMBOL res -384 80 R0
SYMATTR InstName Rthi
SYMATTR Value {rtlo*100}
SYMBOL res -384 208 R0
SYMATTR InstName Rtlo
SYMATTR Value {rtlo}
TEXT -336 464 Left 2 !.PARAM  rcm=470  rs=8.4e-4  r1=5k6  r2=27k  r5=8k3  cdiff=10uF  ccm=1uF rtlo=2
TEXT -744 456 Left 2 !.tran 0 10 0 0.001
