Version 4
SHEET 1 1584 936
WIRE -112 -352 -240 -352
WIRE 560 -352 -32 -352
WIRE -240 -288 -240 -352
WIRE 288 -208 48 -208
WIRE 560 -208 560 -352
WIRE 560 -208 368 -208
WIRE 48 -96 48 -208
WIRE 560 -96 560 -208
WIRE 48 16 48 -16
WIRE 560 16 560 -16
WIRE 48 128 48 96
WIRE 256 128 48 128
WIRE 384 128 336 128
WIRE 48 192 48 128
WIRE 560 192 560 96
WIRE 48 352 48 272
WIRE 256 352 48 352
WIRE 48 384 48 352
WIRE 560 384 560 272
WIRE 48 512 48 464
WIRE 560 512 560 464
WIRE 48 720 48 592
WIRE 192 720 48 720
WIRE 560 720 560 592
WIRE 560 720 272 720
WIRE 560 768 560 720
FLAG 560 768 0
FLAG -240 -288 0
SYMBOL res 32 176 R0
SYMATTR InstName R2
SYMATTR Value {r32}
SYMBOL res 544 176 R0
SYMATTR InstName R3
SYMATTR Value {r41}
SYMBOL res 544 -112 R0
SYMATTR InstName R5
SYMATTR Value {r}
SYMBOL res 32 -112 R0
SYMATTR InstName R6
SYMATTR Value {r}
SYMBOL res 32 368 R0
SYMATTR InstName R7
SYMATTR Value {r}
SYMBOL res 544 368 R0
SYMATTR InstName R8
SYMATTR Value {r}
SYMBOL res 288 704 R90
WINDOW 0 0 56 VBottom 2
WINDOW 3 32 56 VTop 2
SYMATTR InstName R9
SYMATTR Value {r34}
SYMBOL res 384 -224 R90
WINDOW 0 0 56 VBottom 2
WINDOW 3 32 56 VTop 2
SYMATTR InstName R10
SYMATTR Value {r21}
SYMBOL voltage 560 0 R0
WINDOW 123 0 0 Left 0
WINDOW 39 0 0 Left 0
SYMATTR InstName V1
SYMATTR Value 12
SYMBOL voltage 48 0 R0
WINDOW 123 0 0 Left 0
WINDOW 39 0 0 Left 0
SYMATTR InstName V2
SYMATTR Value 12
SYMBOL voltage 48 496 R0
WINDOW 123 0 0 Left 0
WINDOW 39 0 0 Left 0
SYMATTR InstName V3
SYMATTR Value 12
SYMBOL voltage 560 496 R0
WINDOW 123 0 0 Left 0
WINDOW 39 0 0 Left 0
SYMATTR InstName V4
SYMATTR Value 12
SYMBOL current -32 -352 R90
WINDOW 0 -32 40 VBottom 2
WINDOW 3 32 40 VTop 2
WINDOW 123 0 0 Left 0
WINDOW 39 0 0 Left 0
SYMATTR InstName I1
SYMATTR Value SINE(0 200 1 1 0 0 3)
SYMBOL res 352 112 R90
WINDOW 0 0 56 VBottom 2
WINDOW 3 32 56 VTop 2
SYMATTR InstName R4
SYMATTR Value {r42}
SYMBOL res 352 336 R90
WINDOW 0 0 56 VBottom 2
WINDOW 3 32 56 VTop 2
SYMATTR InstName R11
SYMATTR Value {r13}
TEXT -160 768 Left 2 !.tran 0 5 0 0.001
TEXT -240 800 Left 2 !.param r=.011 rawg2=0.00039 r21=1*rawg2 r41=2.5*rawg2 r32=0.5*rawg2 r34=1*rawg2 r42=2*rawg2 r13=2*rawg2
