Version 4
SHEET 1 1616 680
WIRE -288 -1040 -496 -1040
WIRE -288 -896 -288 -960
WIRE 48 -816 -224 -816
WIRE 320 -816 176 -816
WIRE 48 -784 -144 -784
WIRE 384 -784 176 -784
WIRE 48 -752 -32 -752
WIRE 448 -752 176 -752
WIRE 496 -752 448 -752
WIRE 672 -752 576 -752
WIRE 688 -752 672 -752
WIRE 320 -640 320 -816
WIRE 320 -640 240 -640
WIRE 688 -640 688 -688
WIRE -224 -560 -224 -816
WIRE 48 -560 -224 -560
WIRE 240 -560 240 -640
WIRE 240 -560 176 -560
WIRE 320 -560 320 -640
WIRE -144 -528 -144 -784
WIRE 48 -528 -144 -528
WIRE 384 -528 384 -784
WIRE 384 -528 176 -528
WIRE -32 -496 -32 -752
WIRE 48 -496 -32 -496
WIRE 464 -496 176 -496
WIRE 496 -496 464 -496
WIRE 656 -496 576 -496
WIRE 688 -496 656 -496
WIRE 336 -432 240 -432
WIRE 336 -384 336 -432
WIRE 688 -384 688 -432
WIRE -224 -352 -224 -560
WIRE 48 -352 -224 -352
WIRE 240 -352 240 -432
WIRE 240 -352 176 -352
WIRE -144 -320 -144 -528
WIRE 48 -320 -144 -320
WIRE 384 -320 384 -528
WIRE 384 -320 176 -320
WIRE -32 -288 -32 -496
WIRE 48 -288 -32 -288
WIRE 448 -288 176 -288
WIRE 480 -288 448 -288
WIRE 640 -288 560 -288
WIRE 672 -288 640 -288
WIRE -496 -240 -496 -1040
WIRE -304 -240 -496 -240
WIRE 672 -160 672 -224
WIRE -32 -144 -32 -288
WIRE 48 -144 -32 -144
WIRE 112 -144 48 -144
WIRE 272 -144 112 -144
WIRE 112 -112 112 -144
WIRE 384 -64 384 -320
WIRE 384 -64 272 -64
WIRE 112 -32 112 -64
WIRE 112 16 112 -32
WIRE 272 16 112 16
WIRE 112 48 112 16
WIRE -96 80 -192 80
WIRE 96 80 -16 80
WIRE 192 80 96 80
WIRE 384 80 384 -64
WIRE 384 80 272 80
WIRE -368 96 -496 96
WIRE -192 112 -192 80
WIRE 48 160 48 -144
WIRE 128 160 48 160
WIRE 128 176 128 160
WIRE -496 192 -496 96
WIRE -368 192 -368 176
WIRE 112 192 80 192
WIRE -192 208 -192 192
WIRE 384 208 176 208
WIRE -368 224 -368 192
WIRE 96 224 96 80
WIRE 112 224 96 224
WIRE 640 240 608 240
WIRE 784 240 720 240
WIRE 48 256 48 160
WIRE 160 256 160 240
WIRE 160 256 48 256
WIRE 784 256 784 240
WIRE -304 272 -304 -240
WIRE -224 272 -224 -352
WIRE -224 272 -304 272
WIRE -192 272 -192 208
WIRE -192 272 -224 272
WIRE -272 288 -272 256
WIRE 128 288 128 240
WIRE 256 304 144 304
WIRE -496 368 -496 272
WIRE -368 368 -368 304
WIRE -368 368 -496 368
WIRE -272 368 -368 368
WIRE -208 368 -272 368
WIRE -144 368 -144 -320
WIRE -144 368 -208 368
WIRE -96 368 -144 368
WIRE 80 368 80 192
WIRE 80 368 -16 368
WIRE 144 368 144 304
WIRE 144 368 80 368
WIRE 176 368 144 368
WIRE 320 368 320 304
WIRE 320 368 256 368
WIRE 384 368 384 208
WIRE 384 368 320 368
WIRE 784 368 784 320
WIRE -208 400 -208 368
WIRE -224 448 -224 272
WIRE 608 448 608 240
WIRE 608 448 -224 448
FLAG 112 48 0
FLAG 128 288 0
FLAG 384 -64 Vcm
FLAG -208 400 0
FLAG -192 208 Vin
FLAG -272 176 0
FLAG -368 192 Vref
FLAG 320 -560 0
FLAG 336 -384 0
FLAG 688 -384 0
FLAG 672 -160 0
FLAG 656 -496 Vclo_ina181a4
FLAG 640 -288 Vclo_ina181a1
FLAG 688 -640 0
FLAG 672 -752 Vclo_ina181a3
FLAG -288 -896 0
FLAG 448 -752 v_ina181a3
FLAG 464 -496 v_ina181a4
FLAG 448 -288 v_ina181a1
FLAG 384 208 v_diy
FLAG 784 368 0
FLAG 784 240 vin_fil
SYMBOL voltage 112 -128 R0
WINDOW 123 0 0 Left 0
WINDOW 39 0 0 Left 0
SYMATTR InstName V3v3
SYMATTR Value 3.3
SYMBOL res 256 -160 R0
SYMATTR InstName Rcm1
SYMATTR Value {rcm}
SYMBOL res 256 -80 R0
SYMATTR InstName Rcm2
SYMATTR Value {rcm}
SYMBOL res 0 64 R90
WINDOW 0 0 56 VBottom 2
WINDOW 3 32 56 VTop 2
SYMATTR InstName R3
SYMATTR Value {r1+Re1}
SYMBOL res 288 64 R90
WINDOW 0 0 56 VBottom 2
WINDOW 3 32 56 VTop 2
SYMATTR InstName R4
SYMATTR Value {r2}
SYMBOL res 272 352 R90
WINDOW 0 0 56 VBottom 2
WINDOW 3 32 56 VTop 2
SYMATTR InstName R2
SYMATTR Value {r2}
SYMBOL res 0 352 R90
WINDOW 0 0 56 VBottom 2
WINDOW 3 32 56 VTop 2
SYMATTR InstName R1
SYMATTR Value {r1}
SYMBOL voltage -496 176 R0
WINDOW 3 -225 105 Left 2
WINDOW 123 0 0 Left 0
WINDOW 39 0 0 Left 0
SYMATTR Value SINE(0 5 1 1 0 0 8)
SYMATTR InstName V1
SYMBOL res -384 80 R0
WINDOW 3 -66 64 Left 2
SYMATTR Value {rtlo*100}
SYMATTR InstName Rthi
SYMBOL res -384 208 R0
SYMATTR InstName Rtlo
SYMATTR Value {rtlo}
SYMBOL res -288 272 R0
SYMATTR InstName Rshunt
SYMATTR Value {rshunt}
SYMBOL current -272 176 R0
WINDOW 123 0 0 Left 0
WINDOW 39 0 0 Left 0
SYMATTR InstName I1
SYMATTR Value SINE(0 25 1.1 1 0 0 7)
SYMBOL res -208 96 R0
SYMATTR InstName R7
SYMATTR Value {Rpinch}
SYMBOL AutoGenerated\\INA181A4 112 -528 R0
SYMATTR InstName U3
SYMBOL AutoGenerated\\INA181A1 112 -320 R0
SYMATTR InstName U4
SYMBOL res 576 -304 R90
WINDOW 0 0 56 VBottom 2
WINDOW 3 32 56 VTop 2
SYMATTR InstName R9
SYMATTR Value {r5}
SYMBOL res 592 -512 R90
WINDOW 0 0 56 VBottom 2
WINDOW 3 32 56 VTop 2
SYMATTR InstName R10
SYMATTR Value {r5}
SYMBOL cap 672 -496 R0
SYMATTR InstName C1
SYMATTR Value {ccm_amp}
SYMBOL cap 656 -288 R0
SYMATTR InstName C2
SYMATTR Value {ccm_amp}
SYMBOL OpAmps\\ADA4805 144 208 R0
SYMATTR InstName U1
SYMBOL AutoGenerated\\INA181A3 112 -784 R0
SYMATTR InstName U2
SYMBOL res 592 -768 R90
WINDOW 0 0 56 VBottom 2
WINDOW 3 32 56 VTop 2
SYMATTR InstName R6
SYMATTR Value {r5}
SYMBOL cap 672 -752 R0
SYMATTR InstName C3
SYMATTR Value {ccm_amp}
SYMBOL Misc\\signal -288 -1056 R0
WINDOW 123 0 0 Left 0
WINDOW 39 0 0 Left 0
WINDOW 3 24 44 Left 2
SYMATTR InstName V2
SYMATTR Value PWL file=C:\Users\daveg\Documents\GitHub\myStateOfCharge\SOC_Particle\datasheets\pSpice\Rigol\oneFanHi.txt
SYMBOL cap 320 288 R90
WINDOW 0 0 32 VBottom 2
WINDOW 3 32 32 VTop 2
SYMATTR InstName C4
SYMATTR Value {cfil}
SYMBOL res 736 224 R90
WINDOW 0 0 56 VBottom 2
WINDOW 3 32 56 VTop 2
SYMATTR InstName R5
SYMATTR Value {r5}
SYMBOL cap 768 256 R0
SYMATTR InstName C5
SYMATTR Value {ccm_amp}
TEXT -744 536 Left 2 !.param rshunt=0.00075 rcm=470 r1=5k r2=1000k r5=15k ccm_amp=10uf rtlo=2 Rpinch=1e-6 Re1=0 cfil=0.15uf
TEXT -744 456 Left 2 !.tran 0 1.06 1 0.001
TEXT 280 -1232 Left 2 ;Files:\nC:\\Users\\daveg\\Documents\\GitHub\\myStateOfCharge\\SOC_Particle\\datasheets\\pSpice\\Rigol\\bothFansHiOsc.txt\nC:\\Users\\daveg\\Documents\\GitHub\\myStateOfCharge\\SOC_Particle\\datasheets\\pSpice\\Rigol\\light.txt\nC:\\Users\\daveg\\Documents\\GitHub\\myStateOfCharge\\SOC_Particle\\datasheets\\pSpice\\Rigol\\oneFanHi.txt
