Version 4
SHEET 1 1364 680
WIRE 112 -144 64 -144
WIRE 272 -144 112 -144
WIRE 112 -112 112 -144
WIRE 384 -64 272 -64
WIRE 112 -32 112 -64
WIRE 112 16 112 -32
WIRE 272 16 112 16
WIRE 112 32 112 16
WIRE -96 80 -192 80
WIRE 32 80 -16 80
WIRE 192 80 32 80
WIRE 384 80 384 -64
WIRE 384 80 272 80
WIRE -368 96 -496 96
WIRE -192 112 -192 80
WIRE 64 112 64 -144
WIRE 64 112 -16 112
WIRE 64 128 64 112
WIRE 48 144 16 144
WIRE 384 160 112 160
WIRE 32 176 32 80
WIRE 48 176 32 176
WIRE -496 192 -496 96
WIRE -368 192 -368 176
WIRE -192 208 -192 192
WIRE -16 208 -16 112
WIRE 96 208 96 192
WIRE 96 208 -16 208
WIRE -368 224 -368 192
WIRE 64 240 64 192
WIRE -272 272 -272 256
WIRE -192 272 -192 208
WIRE -192 272 -272 272
WIRE -272 288 -272 272
WIRE -496 368 -496 272
WIRE -368 368 -368 304
WIRE -368 368 -496 368
WIRE -272 368 -368 368
WIRE -208 368 -272 368
WIRE -96 368 -208 368
WIRE 16 368 16 144
WIRE 16 368 -16 368
WIRE 176 368 16 368
WIRE 384 368 384 160
WIRE 384 368 256 368
WIRE 496 368 384 368
WIRE 688 368 576 368
WIRE -208 400 -208 368
WIRE 688 416 688 368
WIRE 688 512 688 480
FLAG 112 32 0
FLAG 64 240 0
FLAG 688 512 0
FLAG 384 -64 Vcm
FLAG 688 368 Vclo_amp
FLAG -208 400 0
FLAG -192 208 Vin
FLAG -272 176 0
FLAG -368 192 Vref
SYMBOL Opamps\\ADA4805 80 160 R0
SYMATTR InstName U1
SYMBOL voltage 112 -128 R0
WINDOW 123 0 0 Left 0
WINDOW 39 0 0 Left 0
SYMATTR InstName V3v3
SYMATTR Value 3.3
SYMBOL res 256 -160 R0
SYMATTR InstName Rcm1
SYMATTR Value {rcm}
SYMBOL res 256 -80 R0
SYMATTR InstName Rcm2
SYMATTR Value {rcm}
SYMBOL res 0 64 R90
WINDOW 0 0 56 VBottom 2
WINDOW 3 32 56 VTop 2
SYMATTR InstName R3
SYMATTR Value {r1+Re1}
SYMBOL res 288 64 R90
WINDOW 0 0 56 VBottom 2
WINDOW 3 32 56 VTop 2
SYMATTR InstName R4
SYMATTR Value {r2}
SYMBOL res 592 352 R90
WINDOW 0 0 56 VBottom 2
WINDOW 3 32 56 VTop 2
SYMATTR InstName R5
SYMATTR Value {r5}
SYMBOL res 272 352 R90
WINDOW 0 0 56 VBottom 2
WINDOW 3 32 56 VTop 2
SYMATTR InstName R2
SYMATTR Value {r2}
SYMBOL res 0 352 R90
WINDOW 0 0 56 VBottom 2
WINDOW 3 32 56 VTop 2
SYMATTR InstName R1
SYMATTR Value {r1}
SYMBOL cap 672 416 R0
SYMATTR InstName Ccm2
SYMATTR Value {ccm_amp}
SYMBOL voltage -496 176 R0
WINDOW 3 -225 105 Left 2
WINDOW 123 0 0 Left 0
WINDOW 39 0 0 Left 0
SYMATTR Value SINE(0 5 1 1 0 0 8)
SYMATTR InstName V1
SYMBOL res -384 80 R0
WINDOW 3 -66 64 Left 2
SYMATTR Value {rtlo*100}
SYMATTR InstName Rthi
SYMBOL res -384 208 R0
SYMATTR InstName Rtlo
SYMATTR Value {rtlo}
SYMBOL res -288 272 R0
SYMATTR InstName Rshunt
SYMATTR Value {rshunt}
SYMBOL current -272 176 R0
WINDOW 123 0 0 Left 0
WINDOW 39 0 0 Left 0
SYMATTR InstName I1
SYMATTR Value SINE(0 100 1.1 1 0 0 7)
SYMBOL res -208 96 R0
SYMATTR InstName R7
SYMATTR Value {Rpinch}
TEXT -744 536 Left 2 !.param rshunt=0.00075 rcm=470 r1=5k r2=100k r5=15k ccm_amp=10uf rtlo=2 Rpinch=1e-6 Re1=0
TEXT -744 456 Left 2 !.tran 0 10 0 0.001
